plots/csv/rotor_angle_dev_bus28_julia.csv
t_s,rotor_angle_dev_rad,bus_voltage_angle_dev_rad,angle_source,angle_is_exact_bus_voltage
0.0,0.0,0.0,Vmag_get_voltage_magnitude_series__angle_get_voltage_angle_series,true
0.01,-1.8873791418627683e-16,-1.8873791418627683e-16,Vmag_get_voltage_magnitude_series__angle_get_voltage_angle_series,true
0.02,-2.1094237467878067e-16,-2.1094237467878067e-16,Vmag_get_voltage_magnitude_series__angle_get_voltage_angle_series,true
0.03,-2.553512956637857e-16,-2.553512956637857e-16,Vmag_get_voltage_magnitude_series__angle_get_voltage_angle_series,true
0.04,-3.108624468950419e-16,-3.108624468950419e-16,Vmag_get_voltage_magnitude_series__angle_get_voltage_angle_series,true
0.05,-1.6653345369377772e-16,-1.6653345369377772e-16,Vmag_get_voltage_magnitude_series__angle_get_voltage_angle_series,true
0.06,-1.498801083243918e-16,-1.498801083243918e-16,Vmag_get_voltage_magnitude_series__angle_get_voltage_angle_series,true
0.07,-1.637578961322217e-16,-1.637578961322217e-16,Vmag_get_voltage_magnitude_series__angle_get_voltage_angle_series,true
0.08,-2.24820162486612e-16,-2.24820162486612e-16,Vmag_get_voltage_magnitude_series__angle_get_voltage_angle_series,true
0.09,-1.7763568394002303e-16,-1.7763568394002303e-16,Vmag_get_voltage_magnitude_series__angle_get_voltage_angle_series,true
0.1,-2.914335439641036e-16,-2.914335439641036e-16,Vmag_get_voltage_magnitude_series__angle_get_voltage_angle_series,true
0.11,-0.0008406877553787057,-0.0008406877553787057,Vmag_get_voltage_magnitude_series__angle_get_voltage_angle_series,true
0.12,-0.0010020353327606156,-0.0010020353327606156,Vmag_get_voltage_magnitude_series__angle_get_voltage_angle_series,true
0.13,-0.0010848662211027501,-0.0010848662211027501,Vmag_get_voltage_magnitude_series__angle_get_voltage_angle_series,true
0.14,-0.0012175880787439976,-0.0012175880787439976,Vmag_get_voltage_magnitude_series__angle_get_voltage_angle_series,true
0.15,-0.0013097453970883643,-0.0013097453970883643,Vmag_get_voltage_magnitude_series__angle_get_voltage_angle_series,true
0.16,-0.00143373917118294,-0.00143373917118294,Vmag_get_voltage_magnitude_series__angle_get_voltage_angle_series,true
0.17,-0.0015683982775269237,-0.0015683982775269237,Vmag_get_voltage_magnitude_series__angle_get_voltage_angle_series,true
0.18,-0.0017169460180997786,-0.0017169460180997786,Vmag_get_voltage_magnitude_series__angle_get_voltage_angle_series,true
0.19,-0.0018763172524421294,-0.0018763172524421294,Vmag_get_voltage_magnitude_series__angle_get_voltage_angle_series,true
0.2,-0.0020479025977927076,-0.0020479025977927076,Vmag_get_voltage_magnitude_series__angle_get_voltage_angle_series,true
0.21,-0.002230661259143364,-0.002230661259143364,Vmag_get_voltage_magnitude_series__angle_get_voltage_angle_series,true
0.22,-0.0024243238078076046,-0.0024243238078076046,Vmag_get_voltage_magnitude_series__angle_get_voltage_angle_series,true
0.23,-0.002628353263807363,-0.002628353263807363,Vmag_get_voltage_magnitude_series__angle_get_voltage_angle_series,true
0.24,-0.0028423632306972552,-0.0028423632306972552,Vmag_get_voltage_magnitude_series__angle_get_voltage_angle_series,true
0.25,-0.0030659102767018483,-0.0030659102767018483,Vmag_get_voltage_magnitude_series__angle_get_voltage_angle_series,true
0.26,-0.003298595157485211,-0.003298595157485211,Vmag_get_voltage_magnitude_series__angle_get_voltage_angle_series,true
0.27,-0.0035400296658996524,-0.0035400296658996524,Vmag_get_voltage_magnitude_series__angle_get_voltage_angle_series,true
0.28,-0.0037898448320209466,-0.0037898448320209466,Vmag_get_voltage_magnitude_series__angle_get_voltage_angle_series,true
0.29,-0.00404768241492884,-0.00404768241492884,Vmag_get_voltage_magnitude_series__angle_get_voltage_angle_series,true
0.3,-0.004313192373281184,-0.004313192373281184,Vmag_get_voltage_magnitude_series__angle_get_voltage_angle_series,true
0.31,-0.004586027776338046,-0.004586027776338046,Vmag_get_voltage_magnitude_series__angle_get_voltage_angle_series,true
0.32,-0.004865840390744448,-0.004865840390744448,Vmag_get_voltage_magnitude_series__angle_get_voltage_angle_series,true
0.33,-0.00515227660061352,-0.00515227660061352,Vmag_get_voltage_magnitude_series__angle_get_voltage_angle_series,true
0.34,-0.005444974046181623,-0.005444974046181623,Vmag_get_voltage_magnitude_series__angle_get_voltage_angle_series,true
0.35,-0.0057435589061596015,-0.0057435589061596015,Vmag_get_voltage_magnitude_series__angle_get_voltage_angle_series,true
0.36,-0.0060476440029856495,-0.0060476440029856495,Vmag_get_voltage_magnitude_series__angle_get_voltage_angle_series,true
0.37,-0.006356827544866363,-0.006356827544866363,Vmag_get_voltage_magnitude_series__angle_get_voltage_angle_series,true
0.38,-0.006670692603115706,-0.006670692603115706,Vmag_get_voltage_magnitude_series__angle_get_voltage_angle_series,true
0.39,-0.006988807221966716,-0.006988807221966716,Vmag_get_voltage_magnitude_series__angle_get_voltage_angle_series,true
0.4,-0.0073107250516538675,-0.0073107250516538675,Vmag_get_voltage_magnitude_series__angle_get_voltage_angle_series,true
0.41,-0.007635986439077914,-0.007635986439077914,Vmag_get_voltage_magnitude_series__angle_get_voltage_angle_series,true
0.42,-0.007964119843333417,-0.007964119843333417,Vmag_get_voltage_magnitude_series__angle_get_voltage_angle_series,true
0.43,-0.008294643567826068,-0.008294643567826068,Vmag_get_voltage_magnitude_series__angle_get_voltage_angle_series,true
0.44,-0.00862706765831811,-0.00862706765831811,Vmag_get_voltage_magnitude_series__angle_get_voltage_angle_series,true
0.45,-0.008960895941896016,-0.008960895941896016,Vmag_get_voltage_magnitude_series__angle_get_voltage_angle_series,true
0.46,-0.009295628101230129,-0.009295628101230129,Vmag_get_voltage_magnitude_series__angle_get_voltage_angle_series,true
0.47,-0.009630761769529822,-0.009630761769529822,Vmag_get_voltage_magnitude_series__angle_get_voltage_angle_series,true
0.48,-0.0099657946050056,-0.0099657946050056,Vmag_get_voltage_magnitude_series__angle_get_voltage_angle_series,true
0.49,-0.010300226319026839,-0.010300226319026839,Vmag_get_voltage_magnitude_series__angle_get_voltage_angle_series,true
0.5,-0.010633560598642282,-0.010633560598642282,Vmag_get_voltage_magnitude_series__angle_get_voltage_angle_series,true
0.51,-0.010965306923070461,-0.010965306923070461,Vmag_get_voltage_magnitude_series__angle_get_voltage_angle_series,true
0.52,-0.011294982330092237,-0.011294982330092237,Vmag_get_voltage_magnitude_series__angle_get_voltage_angle_series,true
0.53,-0.011622113057776006,-0.011622113057776006,Vmag_get_voltage_magnitude_series__angle_get_voltage_angle_series,true
0.54,-0.01194623608322086,-0.01194623608322086,Vmag_get_voltage_magnitude_series__angle_get_voltage_angle_series,true
0.55,-0.01226690051747449,-0.01226690051747449,Vmag_get_voltage_magnitude_series__angle_get_voltage_angle_series,true
0.56,-0.012583668993645013,-0.012583668993645013,Vmag_get_voltage_magnitude_series__angle_get_voltage_angle_series,true
0.57,-0.012896118922695298,-0.012896118922695298,Vmag_get_voltage_magnitude_series__angle_get_voltage_angle_series,true
0.58,-0.013203843668523549,-0.013203843668523549,Vmag_get_voltage_magnitude_series__angle_get_voltage_angle_series,true
0.59,-0.013506453609582697,-0.013506453609582697,Vmag_get_voltage_magnitude_series__angle_get_voltage_angle_series,true
0.6,-0.013803577192311445,-0.013803577192311445,Vmag_get_voltage_magnitude_series__angle_get_voltage_angle_series,true
0.61,-0.01409486188694516,-0.01409486188694516,Vmag_get_voltage_magnitude_series__angle_get_voltage_angle_series,true
0.62,-0.014379975072554698,-0.014379975072554698,Vmag_get_voltage_magnitude_series__angle_get_voltage_angle_series,true
0.63,-0.014658604812755988,-0.014658604812755988,Vmag_get_voltage_magnitude_series__angle_get_voltage_angle_series,true
0.64,-0.014930460611367054,-0.014930460611367054,Vmag_get_voltage_magnitude_series__angle_get_voltage_angle_series,true
0.65,-0.015195274091271551,-0.015195274091271551,Vmag_get_voltage_magnitude_series__angle_get_voltage_angle_series,true
0.66,-0.015452799564943904,-0.015452799564943904,Vmag_get_voltage_magnitude_series__angle_get_voltage_angle_series,true
0.67,-0.015702814565293863,-0.015702814565293863,Vmag_get_voltage_magnitude_series__angle_get_voltage_angle_series,true
0.68,-0.015945120217358374,-0.015945120217358374,Vmag_get_voltage_magnitude_series__angle_get_voltage_angle_series,true
0.69,-0.016179541621381837,-0.016179541621381837,Vmag_get_voltage_magnitude_series__angle_get_voltage_angle_series,true
0.7,-0.01640592809905295,-0.01640592809905295,Vmag_get_voltage_magnitude_series__angle_get_voltage_angle_series,true
0.71,-0.0166241533136071,-0.0166241533136071,Vmag_get_voltage_magnitude_series__angle_get_voltage_angle_series,true
0.72,-0.016834115362958275,-0.016834115362958275,Vmag_get_voltage_magnitude_series__angle_get_voltage_angle_series,true
0.73,-0.017035736703932075,-0.017035736703932075,Vmag_get_voltage_magnitude_series__angle_get_voltage_angle_series,true
0.74,-0.017228964041195893,-0.017228964041195893,Vmag_get_voltage_magnitude_series__angle_get_voltage_angle_series,true
0.75,-0.017413768090716215,-0.017413768090716215,Vmag_get_voltage_magnitude_series__angle_get_voltage_angle_series,true
0.76,-0.01759014321973399,-0.01759014321973399,Vmag_get_voltage_magnitude_series__angle_get_voltage_angle_series,true
0.77,-0.017758107046405368,-0.017758107046405368,Vmag_get_voltage_magnitude_series__angle_get_voltage_angle_series,true
0.78,-0.017917699899313078,-0.017917699899313078,Vmag_get_voltage_magnitude_series__angle_get_voltage_angle_series,true
0.79,-0.018068984213743155,-0.018068984213743155,Vmag_get_voltage_magnitude_series__angle_get_voltage_angle_series,true
0.8,-0.018212043836958087,-0.018212043836958087,Vmag_get_voltage_magnitude_series__angle_get_voltage_angle_series,true
0.81,-0.018346983225364925,-0.018346983225364925,Vmag_get_voltage_magnitude_series__angle_get_voltage_angle_series,true
0.82,-0.01847392661839726,-0.01847392661839726,Vmag_get_voltage_magnitude_series__angle_get_voltage_angle_series,true
0.83,-0.018593017100928973,-0.018593017100928973,Vmag_get_voltage_magnitude_series__angle_get_voltage_angle_series,true
0.84,-0.01870441563182966,-0.01870441563182966,Vmag_get_voltage_magnitude_series__angle_get_voltage_angle_series,true
0.85,-0.018808299955763837,-0.018808299955763837,Vmag_get_voltage_magnitude_series__angle_get_voltage_angle_series,true
0.86,-0.018904863548807705,-0.018904863548807705,Vmag_get_voltage_magnitude_series__angle_get_voltage_angle_series,true
0.87,-0.018994314471872567,-0.018994314471872567,Vmag_get_voltage_magnitude_series__angle_get_voltage_angle_series,true
0.88,-0.019076874204112325,-0.019076874204112325,Vmag_get_voltage_magnitude_series__angle_get_voltage_angle_series,true
0.89,-0.01915277640048147,-0.01915277640048147,Vmag_get_voltage_magnitude_series__angle_get_voltage_angle_series,true
0.9,-0.019222265700181023,-0.019222265700181023,Vmag_get_voltage_magnitude_series__angle_get_voltage_angle_series,true
0.91,-0.01928559649310596,-0.01928559649310596,Vmag_get_voltage_magnitude_series__angle_get_voltage_angle_series,true
0.92,-0.019343031654657887,-0.019343031654657887,Vmag_get_voltage_magnitude_series__angle_get_voltage_angle_series,true
0.93,-0.019394841296090145,-0.019394841296090145,Vmag_get_voltage_magnitude_series__angle_get_voltage_angle_series,true
0.94,-0.019441301516534802,-0.019441301516534802,Vmag_get_voltage_magnitude_series__angle_get_voltage_angle_series,true
0.95,-0.019482693189331164,-0.019482693189331164,Vmag_get_voltage_magnitude_series__angle_get_voltage_angle_series,true
0.96,-0.019519300734350837,-0.019519300734350837,Vmag_get_voltage_magnitude_series__angle_get_voltage_angle_series,true
0.97,-0.01955141092518507,-0.01955141092518507,Vmag_get_voltage_magnitude_series__angle_get_voltage_angle_series,true
0.98,-0.01957931171835523,-0.01957931171835523,Vmag_get_voltage_magnitude_series__angle_get_voltage_angle_series,true
0.99,-0.019603291130040675,-0.019603291130040675,Vmag_get_voltage_magnitude_series__angle_get_voltage_angle_series,true
1.0,-0.019623636152366057,-0.019623636152366057,Vmag_get_voltage_magnitude_series__angle_get_voltage_angle_series,true
1.01,-0.019640631682758203,-0.019640631682758203,Vmag_get_voltage_magnitude_series__angle_get_voltage_angle_series,true
1.02,-0.01965455952435632,-0.01965455952435632,Vmag_get_voltage_magnitude_series__angle_get_voltage_angle_series,true
1.03,-0.019665697436243752,-0.019665697436243752,Vmag_get_voltage_magnitude_series__angle_get_voltage_angle_series,true
1.04,-0.019674318222938053,-0.019674318222938053,Vmag_get_voltage_magnitude_series__angle_get_voltage_angle_series,true
1.05,-0.019680688891068845,-0.019680688891068845,Vmag_get_voltage_magnitude_series__angle_get_voltage_angle_series,true
1.06,-0.019685069851886332,-0.019685069851886332,Vmag_get_voltage_magnitude_series__angle_get_voltage_angle_series,true
1.07,-0.019687714185980087,-0.019687714185980087,Vmag_get_voltage_magnitude_series__angle_get_voltage_angle_series,true
1.08,-0.01968886698636609,-0.01968886698636609,Vmag_get_voltage_magnitude_series__angle_get_voltage_angle_series,true
1.09,-0.01968876473313711,-0.01968876473313711,Vmag_get_voltage_magnitude_series__angle_get_voltage_angle_series,true
1.1,-0.019687634753537443,-0.019687634753537443,Vmag_get_voltage_magnitude_series__angle_get_voltage_angle_series,true
1.11,-0.01968569472949691,-0.01968569472949691,Vmag_get_voltage_magnitude_series__angle_get_voltage_angle_series,true
1.12,-0.019683152290688358,-0.019683152290688358,Vmag_get_voltage_magnitude_series__angle_get_voltage_angle_series,true
1.13,-0.019680204641874276,-0.019680204641874276,Vmag_get_voltage_magnitude_series__angle_get_voltage_angle_series,true
1.14,-0.01967703827044194,-0.01967703827044194,Vmag_get_voltage_magnitude_series__angle_get_voltage_angle_series,true
1.15,-0.019673828704633144,-0.019673828704633144,Vmag_get_voltage_magnitude_series__angle_get_voltage_angle_series,true
1.16,-0.019670740346985186,-0.019670740346985186,Vmag_get_voltage_magnitude_series__angle_get_voltage_angle_series,true
1.17,-0.019667926345845473,-0.019667926345845473,Vmag_get_voltage_magnitude_series__angle_get_voltage_angle_series,true
1.18,-0.01966552854022711,-0.01966552854022711,Vmag_get_voltage_magnitude_series__angle_get_voltage_angle_series,true
1.19,-0.019663677436688665,-0.019663677436688665,Vmag_get_voltage_magnitude_series__angle_get_voltage_angle_series,true
1.2,-0.019662492273251543,-0.019662492273251543,Vmag_get_voltage_magnitude_series__angle_get_voltage_angle_series,true
1.21,-0.019662081093548972,-0.019662081093548972,Vmag_get_voltage_magnitude_series__angle_get_voltage_angle_series,true
1.22,-0.019662540902984256,-0.019662540902984256,Vmag_get_voltage_magnitude_series__angle_get_voltage_angle_series,true
1.23,-0.019663957832347922,-0.019663957832347922,Vmag_get_voltage_magnitude_series__angle_get_voltage_angle_series,true
1.24,-0.019666407381161204,-0.019666407381161204,Vmag_get_voltage_magnitude_series__angle_get_voltage_angle_series,true
1.25,-0.019669954666680797,-0.019669954666680797,Vmag_get_voltage_magnitude_series__angle_get_voltage_angle_series,true
1.26,-0.01967465473778408,-0.01967465473778408,Vmag_get_voltage_magnitude_series__angle_get_voltage_angle_series,true
1.27,-0.01968055288804968,-0.01968055288804968,Vmag_get_voltage_magnitude_series__angle_get_voltage_angle_series,true
1.28,-0.019687685019659472,-0.019687685019659472,Vmag_get_voltage_magnitude_series__angle_get_voltage_angle_series,true
1.29,-0.019696078034757473,-0.019696078034757473,Vmag_get_voltage_magnitude_series__angle_get_voltage_angle_series,true
1.3,-0.019705750238525832,-0.019705750238525832,Vmag_get_voltage_magnitude_series__angle_get_voltage_angle_series,true
1.31,-0.019716711762377076,-0.019716711762377076,Vmag_get_voltage_magnitude_series__angle_get_voltage_angle_series,true
1.32,-0.019728965004205755,-0.019728965004205755,Vmag_get_voltage_magnitude_series__angle_get_voltage_angle_series,true
1.33,-0.01974250509512218,-0.01974250509512218,Vmag_get_voltage_magnitude_series__angle_get_voltage_angle_series,true
1.34,-0.01975732035642309,-0.01975732035642309,Vmag_get_voltage_magnitude_series__angle_get_voltage_angle_series,true
1.35,-0.0197733927743692,-0.0197733927743692,Vmag_get_voltage_magnitude_series__angle_get_voltage_angle_series,true
1.36,-0.019790698472714478,-0.019790698472714478,Vmag_get_voltage_magnitude_series__angle_get_voltage_angle_series,true
1.37,-0.01980920820234938,-0.01980920820234938,Vmag_get_voltage_magnitude_series__angle_get_voltage_angle_series,true
1.38,-0.01982888781419294,-0.01982888781419294,Vmag_get_voltage_magnitude_series__angle_get_voltage_angle_series,true
1.39,-0.01984969873238858,-0.01984969873238858,Vmag_get_voltage_magnitude_series__angle_get_voltage_angle_series,true
1.4,-0.01987159842596181,-0.01987159842596181,Vmag_get_voltage_magnitude_series__angle_get_voltage_angle_series,true
1.41,-0.01989454086730737,-0.01989454086730737,Vmag_get_voltage_magnitude_series__angle_get_voltage_angle_series,true
1.42,-0.019918476993416995,-0.019918476993416995,Vmag_get_voltage_magnitude_series__angle_get_voltage_angle_series,true
1.43,-0.0199433551378492,-0.0199433551378492,Vmag_get_voltage_magnitude_series__angle_get_voltage_angle_series,true
1.44,-0.019969121460487363,-0.019969121460487363,Vmag_get_voltage_magnitude_series__angle_get_voltage_angle_series,true
1.45,-0.01999572036013695,-0.01999572036013695,Vmag_get_voltage_magnitude_series__angle_get_voltage_angle_series,true
1.46,-0.02002309487272772,-0.02002309487272772,Vmag_get_voltage_magnitude_series__angle_get_voltage_angle_series,true
1.47,-0.020051187051097565,-0.020051187051097565,Vmag_get_voltage_magnitude_series__angle_get_voltage_angle_series,true
1.48,-0.02007993832311205,-0.02007993832311205,Vmag_get_voltage_magnitude_series__angle_get_voltage_angle_series,true
1.49,-0.02010928983239623,-0.02010928983239623,Vmag_get_voltage_magnitude_series__angle_get_voltage_angle_series,true
1.5,-0.020139182766301264,-0.020139182766301264,Vmag_get_voltage_magnitude_series__angle_get_voltage_angle_series,true
1.51,-0.02016955865287435,-0.02016955865287435,Vmag_get_voltage_magnitude_series__angle_get_voltage_angle_series,true
1.52,-0.020200359642510667,-0.020200359642510667,Vmag_get_voltage_magnitude_series__angle_get_voltage_angle_series,true
1.53,-0.020231528764955056,-0.020231528764955056,Vmag_get_voltage_magnitude_series__angle_get_voltage_angle_series,true
1.54,-0.020263010169454476,-0.020263010169454476,Vmag_get_voltage_magnitude_series__angle_get_voltage_angle_series,true
1.55,-0.020294749342716845,-0.020294749342716845,Vmag_get_voltage_magnitude_series__angle_get_voltage_angle_series,true
1.56,-0.0203266933039824,-0.0203266933039824,Vmag_get_voltage_magnitude_series__angle_get_voltage_angle_series,true
1.57,-0.02035879077388849,-0.02035879077388849,Vmag_get_voltage_magnitude_series__angle_get_voltage_angle_series,true
1.58,-0.020390992333724357,-0.020390992333724357,Vmag_get_voltage_magnitude_series__angle_get_voltage_angle_series,true
1.59,-0.020423250560042468,-0.020423250560042468,Vmag_get_voltage_magnitude_series__angle_get_voltage_angle_series,true
1.6,-0.020455520133617473,-0.020455520133617473,Vmag_get_voltage_magnitude_series__angle_get_voltage_angle_series,true
1.61,-0.02048775793813075,-0.02048775793813075,Vmag_get_voltage_magnitude_series__angle_get_voltage_angle_series,true
1.62,-0.020519923132020154,-0.020519923132020154,Vmag_get_voltage_magnitude_series__angle_get_voltage_angle_series,true
1.63,-0.020551977212240745,-0.020551977212240745,Vmag_get_voltage_magnitude_series__angle_get_voltage_angle_series,true
1.64,-0.020583884053814002,-0.020583884053814002,Vmag_get_voltage_magnitude_series__angle_get_voltage_angle_series,true
1.65,-0.02061560993455775,-0.02061560993455775,Vmag_get_voltage_magnitude_series__angle_get_voltage_angle_series,true
1.66,-0.020647123545039385,-0.020647123545039385,Vmag_get_voltage_magnitude_series__angle_get_voltage_angle_series,true
1.67,-0.02067839598847026,-0.02067839598847026,Vmag_get_voltage_magnitude_series__angle_get_voltage_angle_series,true
1.68,-0.020709400761800473,-0.020709400761800473,Vmag_get_voltage_magnitude_series__angle_get_voltage_angle_series,true
1.69,-0.02074011372823246,-0.02074011372823246,Vmag_get_voltage_magnitude_series__angle_get_voltage_angle_series,true
1.7,-0.020770513073219796,-0.020770513073219796,Vmag_get_voltage_magnitude_series__angle_get_voltage_angle_series,true
1.71,-0.02080057925820077,-0.02080057925820077,Vmag_get_voltage_magnitude_series__angle_get_voltage_angle_series,true
1.72,-0.020830294961079805,-0.020830294961079805,Vmag_get_voltage_magnitude_series__angle_get_voltage_angle_series,true
1.73,-0.020859645004980477,-0.020859645004980477,Vmag_get_voltage_magnitude_series__angle_get_voltage_angle_series,true
1.74,-0.020888616286483648,-0.020888616286483648,Vmag_get_voltage_magnitude_series__angle_get_voltage_angle_series,true
1.75,-0.02091719769147528,-0.02091719769147528,Vmag_get_voltage_magnitude_series__angle_get_voltage_angle_series,true
1.76,-0.02094538001018713,-0.02094538001018713,Vmag_get_voltage_magnitude_series__angle_get_voltage_angle_series,true
1.77,-0.020973155846416618,-0.020973155846416618,Vmag_get_voltage_magnitude_series__angle_get_voltage_angle_series,true
1.78,-0.021000519519426376,-0.021000519519426376,Vmag_get_voltage_magnitude_series__angle_get_voltage_angle_series,true
1.79,-0.02102746696925248,-0.02102746696925248,Vmag_get_voltage_magnitude_series__angle_get_voltage_angle_series,true
1.8,-0.021053995655514083,-0.021053995655514083,Vmag_get_voltage_magnitude_series__angle_get_voltage_angle_series,true
1.81,-0.0210801044575993,-0.0210801044575993,Vmag_get_voltage_magnitude_series__angle_get_voltage_angle_series,true
1.82,-0.0211057935709127,-0.0211057935709127,Vmag_get_voltage_magnitude_series__angle_get_voltage_angle_series,true
1.83,-0.021131064407305007,-0.021131064407305007,Vmag_get_voltage_magnitude_series__angle_get_voltage_angle_series,true
1.84,-0.021155919494006678,-0.021155919494006678,Vmag_get_voltage_magnitude_series__angle_get_voltage_angle_series,true
1.85,-0.021180362374722088,-0.021180362374722088,Vmag_get_voltage_magnitude_series__angle_get_voltage_angle_series,true
1.86,-0.021204397510865784,-0.021204397510865784,Vmag_get_voltage_magnitude_series__angle_get_voltage_angle_series,true
1.87,-0.021228030187074774,-0.021228030187074774,Vmag_get_voltage_magnitude_series__angle_get_voltage_angle_series,true
1.88,-0.0212512664189002,-0.0212512664189002,Vmag_get_voltage_magnitude_series__angle_get_voltage_angle_series,true
1.89,-0.02127411286414055,-0.02127411286414055,Vmag_get_voltage_magnitude_series__angle_get_voltage_angle_series,true
1.9,-0.02129657673539563,-0.02129657673539563,Vmag_get_voltage_magnitude_series__angle_get_voltage_angle_series,true
1.91,-0.02131866571876747,-0.02131866571876747,Vmag_get_voltage_magnitude_series__angle_get_voltage_angle_series,true
1.92,-0.02134038789555071,-0.02134038789555071,Vmag_get_voltage_magnitude_series__angle_get_voltage_angle_series,true
1.93,-0.021361751668765173,-0.021361751668765173,Vmag_get_voltage_magnitude_series__angle_get_voltage_angle_series,true
1.94,-0.02138276569308034,-0.02138276569308034,Vmag_get_voltage_magnitude_series__angle_get_voltage_angle_series,true
1.95,-0.021403438808680775,-0.021403438808680775,Vmag_get_voltage_magnitude_series__angle_get_voltage_angle_series,true
1.96,-0.021423779981407532,-0.021423779981407532,Vmag_get_voltage_magnitude_series__angle_get_voltage_angle_series,true
1.97,-0.021443798246859144,-0.021443798246859144,Vmag_get_voltage_magnitude_series__angle_get_voltage_angle_series,true
1.98,-0.021463502658177133,-0.021463502658177133,Vmag_get_voltage_magnitude_series__angle_get_voltage_angle_series,true
1.99,-0.021482902238397474,-0.021482902238397474,Vmag_get_voltage_magnitude_series__angle_get_voltage_angle_series,true
...
